"Father,	3
"Good	1
"Here	1
"Men	2
"My	2
"See	1
"Some	1
"Son	1
"Telemachus,	1
"Ulysses,	1
"You	1
"and	1
"cease	1
"what	1
&amp;	1
&amp;|	1
'	1
----------------------------------------------------------------------	1
00readme.txt.	1
</font>	1
<b>A</b>	1
<b>A</b>'	1
<bullet	1
<font	2
Achaeans	1
Aegisthus	2
Aegisthus,	1
Aegisthus;	1
Agamemnon's	2
Agamemnon,	1
And	3
Arceisius---best	1
As	1
At	1
Atlas	1
Atlas,	1
Bear	1
Book	1
But	3
Butler	1
By	1
CHALLENGE	1
COUNCIL--MIVERVA'S	1
Calypso	1
Calypso,	1
Copyright	1
Cyclopes.	1
Do	2
Dolius	1
Dolius's	1
Dolius.	1
East.<super><font	1
Ellipsis	9
English	1
Ethiopians,	1
Eupeithes	1
Eupeithes'	1
Eupeithes;	1
FROM	1
GODS	1
Halitherses	1
He	3
Homer	1
How	1
Hyperion;	1
I	15
IN	1
ITHACA--THE	1
In	1
It	1
Ithaca,	2
Ithaca,"	1
Ithaca;	1
Jove	4
Jove's	1
Jove,	3
King	2
Laertes	3
Laertes,	1
Let	1
Look	1
Many	1
Meantime	1
Mentor,	2
Mentor.	1
Mercury	3
Minerva	8
Minerva,	2
Muse,	1
My	1
Neptune	4
Neptune,	1
No	1
Now	2
Now,	1
O	1
Odyssey	1
Ogygian	1
Olympian	1
Olympus.	1
On	2
Orestes	1
Orestes;	1
Penelope,	1
Phorcys;	1
Polyphemus	2
Pylos,	1
ReportLab.	1
SUITORS.	1
Samuel	1
Saturn	1
Saturn,	3
So	2
Sparta	1
Standing	1
Still,	1
Sun-god	1
TELEMACHUS	1
THE	2
TO	2
Telemachus,	2
Telemachus;	1
Tell	1
The	2
Then	5
They	2
This	5
Thoosa,	1
Thus	1
To	1
Troy	1
Ulysses	14
Ulysses'	1
Ulysses,	6
VISIT	1
Was	1
West	1
When	1
Why	1
Will	1
You,	1
a	15
about	3
about,	1
about?	1
accept	1
acquainted;	1
after	3
again,	1
against	2
all	13
aloud,	1
already	1
also	2
am	2
among	1
an	3
ancestors,	1
and	72
angry	2
another	1
answer	1
answered	1
answered,	1
any	2
anything	1
are	7
are,	1
armed	1
armour	3
armour,	2
arms	1
arrangement	1
arrangement.	1
as	12
ask	1
assembly,	1
assembly.	1
asserted.	1
assumed	2
asunder.	1
at	8
attempt.	1
avenge	1
away,	1
b	1
back	2
bade	1
battle	1
be	8
become	1
been	3
before	1
began	1
begun	1
being	1
between	2
bid.	1
blame	1
blandishment	1
bleeds,	1
blinded	1
bloodshed."	1
blue-eyed	1
bottom	1
bring	2
brothers.	1
burnt	1
but	8
by	12
by,	1
c	1
call	1
came	4
can	5
cannot	1
capable	1
carries	1
cattle	1
cause	1
cave	1
ceasing	1
check	1
chieftain	1
child,	2
chimneys.	1
cities	1
city	1
city,	1
close	2
color="blue">I</font></bullet><font	1
color="green"><b><i>Tell</i></b></font>me,	1
color="green">Now	1
color="red"	1
color="red">1</font></super>	1
columns	1
complete	1
conduct	1
contending	1
continue	1
copy	1
copyright	1
could	2
could--that	1
country,	1
courage	1
covenant	1
covenant,	1
covered	1
credited	1
cried,	1
cry,	1
customs	1
damsel,	1
darted	1
daughter	5
day	1
dear	2
death	2
delighted	1
detained	1
did	3
did;	1
dinner,	1
directory	1
disgrace	2
dishonouring	1
displeased	1
distributed	1
do	5
do?	1
does	1
doing	1
domain	1
domain.	1
done	1
down	3
download	1
drawing	1
dreadful	1
dropped	1
eager	1
eagle.	1
earth	1
earth,	1
eating	2
either	1
ellipsis	54
ellipsis.	9
else	1
embolden	1
eminent	1
end,	1
engagement,	1
enjoying	1
enjoying:	1
escaped	1
even	1
ever	2
every	5
everything	1
evil	1
except	2
exclaimed,	1
eye	1
family."	1
famous	1
far	2
fast	1
father,"	1
father--for	1
father;	1
fault	1
fear	1
fell	4
festival;	1
fight	1
fighting	1
find	1
fire	1
first	1
first.	1
fled	1
foe	1
folly	2
folly.	2
for	12
forest,	1
forget	3
forgive	1
form	3
form,	1
forth,	1
fresh	1
friend	1
friends	1
friends.	1
frightened	1
from	8
front	3
ftp://ftp.reportlab.com/odyssey.full.zip	1
full."	1
furious	1
further	1
further,	1
gate	1
gathering	1
gave	1
get	2
getting	3
glad	1
gladly.	1
go	4
god	1
goddess	2
goddess'	1
gods	7
gods:	1
going	1
gone	2
good	1
got	3
grandson	1
great	2
grew	1
grey	1
ground	1
ground.	1
had	11
hair.	1
half	1
halves,	1
hands	1
hardly	1
has	3
have	5
have;	1
having	2
he	37
he,	1
heads	1
heads."	1
hear	1
heard	1
heart	2
hearts--wasting	1
heaven	1
heaven?	1
heavens,"	1
heavily	1
hecatomb	1
heed	1
helmet	1
helmet,	1
help	1
her	4
her,	1
here	1
here.	1
heretofore,	1
hero	1
him	14
him,	1
him.	1
him."	1
him;	1
him?"	1
himself	3
his	24
hit	1
hold	1
home	3
home,	2
home.	4
home;	1
house	1
how	3
however,	3
hurl	1
hurled	1
hurried	1
if	5
if,	1
immortal	1
in	29
inasmuch	1
indeed	1
indeed,	1
indent="-18"><font	1
infused	1
ingenious	1
into	4
is	15
island	2
island,	1
it	9
it,	1
it.	2
it."	1
just	1
keep	2
keeps	1
kill	2
killed	2
kind	1
king	2
kings,	3
knew	1
know	1
large	1
lay	2
leading	1
led	1
left	1
let	6
liberal	1
lie	1
life	1
life,	1
like	1
like,	1
line	1
listen	1
listen,	1
live	1
lives	1
lives.	1
lonely	1
longing	1
looking	1
looks	1
loud	1
love	1
made	3
magician	1
make	4
man	1
man's	1
man,	1
manners	1
many	2
marry	1
massacre	1
matter	2
may	3
me	1
me,	2
me?	1
mean	1
meantime	1
men	3
men,	2
mention	1
met	2
mettle,	1
middle	1
might	1
mind	2
mind,	1
minds	1
modified	3
moment	1
more	4
moreover	1
most	1
mother	1
much	2
murder	1
must	2
my	2
name="courier"	1
nations	1
near,	1
necessity	1
needs	1
neither	1
never	1
nevertheless	1
no	3
noble	1
nor	3
not	13
not,	1
nothing	2
now	5
now,	1
number	1
nymph	1
obeyed	1
ocean,	1
odyssey.full.txt.	1
of	64
off	3
offerings	1
oh	1
on	8
once	3
once."	1
one	6
one;	1
only	1
opened	1
or	4
other	3
others	2
our	3
out	5
outright,	1
over."	1
over;	1
own	8
oxen,	1
oxen;	1
pacified,	1
pages	1
paid	1
pale	1
parties.	1
pause.	1
peace	3
people	1
people,	1
perish	1
perished	1
persecuted	1
persist	1
pity	1
plenty	1
poise	1
poised	1
poor	2
prayed	1
presently	1
prevented	2
preventing	1
produce	1
propitiate	1
propose	1
prose	1
public	2
put	4
question--What	1
quickly	1
quite	1
raised	2
rang	1
rattling	1
reaching	1
really	1
reasonable	1
references	1
reign."	1
rejoice	1
remains	1
removed	1
rendered	1
reportlab	1
rest	1
return	3
return,	1
return.	2
return;	1
revenge	2
revenged,	1
right	1
right,	1
round	1
rule,	1
sacked	1
sacrifice?	1
safely	2
said	5
said,	5
sallied	1
same--warriors	1
save	2
saw	1
say	2
say,	1
saying,	1
sea	1
sea,	1
sea-girt	1
sea-king	1
see	5
see,	1
seized	1
send	1
sent	2
served	1
set	1
settle	1
settled	1
shall	2
she	5
sheep	2
sheer	1
shipwreck	1
should	5
shout,	1
show	1
sided	1
sir,	1
sire	1
six	1
size="12"><b>Troy</b></font>.	1
size="13"	1
smoke	1
smote	1
so	9
soaring	1
solemn	1
son	11
son,	1
sons	4
sound	1
source	2
speak	2
spear	3
spears;	1
specifies	1
speech	1
spite	1
spoke	3
stand	1
statement:	1
stayed	2
still	3
stop	1
strength	1
strife,	1
substance	1
suffered	1
sufferings	1
suitors	1
suitors?	1
summits	1
sure	2
swear	1
swooped	1
swords	1
take	2
talking	1
tell	3
test	2
text	4
than	2
that	22
the	79
their	14
them	10
them,	3
them.	1
them?"	1
themselves,	1
then	5
then,	2
there	3
there,	1
there;	1
therefore	2
these	2
they	16
things	1
things,	2
think	2
thinking	1
thinks	1
this	8
this,	1
this.	1
though	3
thought	2
three	1
threshold	1
through	2
thunderbolt	1
time	1
tired	1
to	57
together	3
told	1
too,	1
took	1
topmost	1
torments	1
town	1
travelled	1
troubles	1
truly,	1
truth	1
trying	2
turned	1
two	2
unhappy	1
unrighteously	1
up	6
upon	4
us	3
us."	2
valour."	1
version	1
very	1
vigour	1
virtue	1
visit,	1
voice	3
voice,	1
vying	1
wanted	2
wantonness	1
war,	1
warful	1
warn	1
was	16
way.	1
we	7
well	1
went	3
were	5
were,	1
what	6
whatever	1
whatsoever	1
when	11
where	1
whereas	1
which	2
while	2
who	12
whom	1
whose	1
why	1
wide	1
wife	3
will	12
will,	1
with	9
without	2
world	1
world's	1
world--pray	1
would	8
wrong	1
years	1
yet	3
you	18
you.	1
you."	1
your	7
|	1
